27

C   0.4046115425 0.0077931659 -0.1914055846
C   13.5613238444 -0.342014475 -3.8539571723
C   15.3853898412 -0.5579317642 1.362916579
C   1.7230496624 -0.0029580403 -0.1582026821
C   14.1885074999 -0.5793545987 -2.6915112209
C   3.0016025594 -0.0133186956 -0.1260157774
C   4.2936690824 -0.0235027081 -0.0933690715
C   5.5706780114 -0.0334901184 -0.0610627893
C   6.863398363 -0.0433286598 -0.0280755927
C   8.138417432 -0.0530318696 0.0044737391
C   9.434247718 -0.0627070058 0.0364942008
C   10.705623169 -0.0722907713 0.068036159
C   12.0084656605 -0.0837236884 0.1008137709
C   13.2730522883 -0.1048121887 0.1359992508
C   14.6286215216 -0.0865674207 0.1459541601
C   15.1679145781 0.3366828784 -2.0866360755
N   15.3902547971 0.4707047626 -0.833992961
O   15.9207882454 1.089038921 -2.9142118145
H   -0.3044608899 -0.7634528078 -2.1947272438
H   -0.3931054787 0.7943243138 1.7718659908
H   12.8439013678 -1.0473239857 -4.260568841
H   13.7027340367 0.581267714 -4.4128101393
H   14.7279443566 -1.0689960754 2.0677986886
H   15.8501020362 0.2999425792 1.8663946883
H   16.2001908424 -1.2323175735 1.0717623941
H   13.9669705492 -1.480740072 -2.1271461638
H   15.7948539338 0.7740090981 -3.8255910472
