22

C   1.2979088376 0.9965053949 -0.4488012852
C   2.6161686591 0.56267869 -0.8205565333
C   3.7390495075 0.1960231085 -1.135240165
C   9.2212224701 -0.0530418775 0.0439777253
C   8.1799815013 -1.0713044969 0.5949737201
C   8.3186128372 0.1934761746 -1.1999324327
C   5.0853450403 -0.2467722771 -1.5030712314
C   7.2857037083 -0.83951699 -0.6548143334
N   5.9778585961 -0.2745292827 -0.3355159143
H   1.449783913 1.6054548855 1.0459724496
H   0.3700173502 -0.3319598656 -0.5061018269
H   0.8640868467 2.1173474252 -1.5477216951
H   10.2025178383 -0.4841699423 -0.1827758228
H   9.3680299949 0.8284994567 0.6779980647
H   7.7047882914 -0.7695002426 1.5361498844
H   8.549143683 -2.098415274 0.6982163278
H   8.7723536645 -0.0809248446 -2.1601042595
H   7.9179261694 1.210501334 -1.2714688341
H   5.5120080604 0.4535135716 -2.2354720611
H   5.017741613 -1.2331092799 -2.0052317753
H   7.2038233224 -1.7358697477 -1.299036638
H   5.5423445349 -0.8488471315 0.3841153126
