32

C   2.3629197241 -0.9634827489 -0.3726365926
C   0.4716256869 -0.8784843823 2.1828391374
C   1.0838854296 0.1178748666 1.2591962027
C   4.805082187 -0.8384140616 1.6213046973
C   4.8746814073 0.4752115477 0.7855617245
C   2.9473155504 3.2513627659 1.3416174186
C   2.4347884952 2.9477064662 -0.0625540343
C   1.1824841822 -2.2140469874 2.4091098447
C   2.6471184974 -2.0740071599 2.7124769014
C   2.5101978761 -0.167027039 0.9698033826
C   3.3282836846 -0.9850371396 1.9726417957
C   3.4443561609 1.0653454038 0.7591028422
O   0.6412005 -3.2950201229 2.2733459469
O   3.2287577215 1.9522478021 1.8630380493
O   3.2195351014 1.8024307238 -0.4180878849
O   2.9817166081 -0.8248379644 3.3519977503
H   1.7879438871 -1.8850751448 -0.2382334454
H   3.357808556 -1.2407805276 -0.7350734543
H   1.8843640003 -0.3430526311 -1.1313664822
H   -0.6006889222 -1.028968479 2.0190443966
H   0.5711753424 -0.2795983449 3.1143194924
H   -1.7557324833 1.3273625177 -0.4695887976
H   -1.1289684456 1.1592918164 -0.1014322694
H   5.3927596375 -0.7839393839 2.5411680194
H   5.1664109852 -1.6967883539 1.0456732731
H   5.1963181013 0.2822525448 -0.2418339972
H   5.5587519811 1.2098436207 1.2163809313
H   2.2089450575 3.7327260926 1.9886833928
H   3.8606622172 3.8630452459 1.3149754261
H   2.6368706851 3.734244076 -0.7939151756
H   1.3696890944 2.6943002662 -0.0554396744
H   3.1772415933 -2.9598853851 3.0585813824
